Circuit: * C:\Projects\GitHub\CastleHKCArduinoRKP\Docs\ArdTx Final Soln V2_CustomLib.asc

WARNING: Less than two connections to node 5V.  This node is used by V2.
.OP point found by inspection.

Date: Tue Jun 09 22:14:14 2015
Total elapsed time: 0.127 seconds.

tnom = 27
temp = 27
method = modified trap
totiter = 6938
traniter = 6938
tranpoints = 2761
accept = 2304
rejected = 457
matrix size = 16
fillins = 0
solver = Normal
Matrix Compiler1: 636 bytes object code size  0.3/0.1/[0.1]
Matrix Compiler2: 1.09 KB object code size  0.2/0.3/[0.1]


