Circuit: * C:\Projects\GitHub\CastleHKCArduinoRKP\Docs\ArdTx Final Soln V2.asc

WARNING: Less than two connections to node 5V.  This node is used by V2.
.OP point found by inspection.

Date: Mon Jun 08 01:10:33 2015
Total elapsed time: 0.074 seconds.

tnom = 27
temp = 27
method = modified trap
totiter = 6956
traniter = 6956
tranpoints = 2783
accept = 2356
rejected = 427
matrix size = 22
fillins = 0
solver = Normal
Matrix Compiler1: 1.30 KB object code size  0.8/0.5/[0.2]
Matrix Compiler2: 1.69 KB object code size  0.5/0.8/[0.3]


